<?xml version="1.0" encoding="UTF-8"?>

<!-- generated on 2025-08-25 19:18:59.540817 by randomTrips.py v1_24_0+0000-b72eb3fabc8
<configuration>
    <net-file value="grid.net.xml"/>
    <route-file value="grid.rou.xml"/>
    <end value="1000.0"/>
    <period value="20.0"/>
</configuration>
-->

<!-- generated on 2025-08-25 19:18:59 by Eclipse SUMO duarouter Version 1.24.0
<duarouterConfiguration xmlns:xsi="http://www.w3.org/2001/XMLSchema-instance" xsi:noNamespaceSchemaLocation="http://sumo.dlr.de/xsd/duarouterConfiguration.xsd">

    <input>
        <net-file value="grid.net.xml"/>
        <route-files value="trips.trips.xml"/>
    </input>

    <output>
        <output-file value="grid.rou.xml"/>
        <alternatives-output value="NUL"/>
    </output>

    <time>
        <begin value="0"/>
        <end value="1000.0"/>
    </time>

    <report>
        <no-warnings value="true"/>
        <ignore-errors value="true"/>
        <no-step-log value="true"/>
    </report>

</duarouterConfiguration>
-->

<routes xmlns:xsi="http://www.w3.org/2001/XMLSchema-instance" xsi:noNamespaceSchemaLocation="http://sumo.dlr.de/xsd/routes_file.xsd">
    <vehicle id="0" depart="0.00">
        <route edges="D0E0 E0E1 E1D1 D1C1 C1B1 B1A1 A1A0"/>
    </vehicle>
    <vehicle id="1" depart="20.00">
        <route edges="B2B3 B3B2 B2B1 B1B0"/>
    </vehicle>
    <vehicle id="2" depart="40.00">
        <route edges="D2D3 D3D2 D2D1 D1D2"/>
    </vehicle>
    <vehicle id="3" depart="60.00">
        <route edges="E1E2 E2D2 D2C2 C2B2 B2A2 A2A3"/>
    </vehicle>
    <vehicle id="4" depart="80.00">
        <route edges="C0D0 D0D1 D1C1 C1B1 B1A1 A1A0"/>
    </vehicle>
    <vehicle id="5" depart="100.00">
        <route edges="B1B0 B0C0 C0C1 C1C2 C2C3"/>
    </vehicle>
    <vehicle id="6" depart="120.00">
        <route edges="A1A0 A0B0 B0C0"/>
    </vehicle>
    <vehicle id="7" depart="140.00">
        <route edges="D0E0 E0E1 E1E2 E2E3 E3D3 D3C3 C3C2"/>
    </vehicle>
    <vehicle id="8" depart="160.00">
        <route edges="B1B0 B0B1 B1B2 B2B3 B3B4 B4C4 C4C3"/>
    </vehicle>
    <vehicle id="9" depart="180.00">
        <route edges="D4C4 C4B4 B4B3 B3B2 B2B1 B1B0 B0A0 A0A1"/>
    </vehicle>
    <vehicle id="10" depart="200.00">
        <route edges="D4C4 C4C3 C3C2 C2C1 C1D1 D1E1"/>
    </vehicle>
    <vehicle id="11" depart="220.00">
        <route edges="B3C3 C3B3 B3A3 A3A4 A4B4"/>
    </vehicle>
    <vehicle id="12" depart="240.00">
        <route edges="E3E2 E2D2 D2C2 C2B2 B2B3 B3B4"/>
    </vehicle>
    <vehicle id="13" depart="260.00">
        <route edges="A2B2"/>
    </vehicle>
    <vehicle id="14" depart="280.00">
        <route edges="E0D0 D0C0 C0C1 C1C2 C2C3 C3C4 C4D4"/>
    </vehicle>
    <vehicle id="15" depart="300.00">
        <route edges="D4C4 C4C3 C3C2 C2D2 D2D3"/>
    </vehicle>
    <vehicle id="16" depart="320.00">
        <route edges="C3B3 B3C3 C3D3 D3E3 E3E4"/>
    </vehicle>
    <vehicle id="17" depart="340.00">
        <route edges="B4C4 C4C3 C3C4"/>
    </vehicle>
    <vehicle id="18" depart="360.00">
        <route edges="D4E4 E4E3 E3E2 E2E1 E1E0 E0D0 D0C0"/>
    </vehicle>
    <vehicle id="19" depart="380.00">
        <route edges="E0E1 E1E2 E2E3 E3E4 E4D4 D4C4 C4B4"/>
    </vehicle>
    <vehicle id="20" depart="400.00">
        <route edges="D2C2 C2C1 C1B1 B1A1 A1A2"/>
    </vehicle>
    <vehicle id="21" depart="420.00">
        <route edges="B1B2 B2C2"/>
    </vehicle>
    <vehicle id="22" depart="440.00">
        <route edges="A2A3 A3B3 B3B2 B2B1 B1B2"/>
    </vehicle>
    <vehicle id="23" depart="460.00">
        <route edges="A3A2 A2B2 B2B3"/>
    </vehicle>
    <vehicle id="24" depart="480.00">
        <route edges="D0D1 D1D2 D2D3 D3D4 D4C4 C4B4 B4B3"/>
    </vehicle>
    <vehicle id="25" depart="500.00">
        <route edges="B4B3 B3B2 B2B1 B1A1"/>
    </vehicle>
    <vehicle id="26" depart="520.00">
        <route edges="B2B1 B1C1 C1D1 D1E1 E1E2 E2E3"/>
    </vehicle>
    <vehicle id="27" depart="540.00">
        <route edges="D0E0 E0E1 E1E2 E2E3 E3D3 D3C3 C3C4 C4D4"/>
    </vehicle>
    <vehicle id="28" depart="560.00">
        <route edges="B0A0 A0A1 A1A2 A2B2 B2C2 C2D2 D2D3"/>
    </vehicle>
    <vehicle id="29" depart="580.00">
        <route edges="B0A0 A0A1 A1A2 A2A3 A3A4 A4B4 B4C4"/>
    </vehicle>
    <vehicle id="30" depart="600.00">
        <route edges="E4E3 E3E2 E2E1 E1D1 D1D0 D0E0"/>
    </vehicle>
    <vehicle id="31" depart="620.00">
        <route edges="C3C4 C4C3 C3C2 C2C1 C1D1 D1D2"/>
    </vehicle>
    <vehicle id="32" depart="640.00">
        <route edges="E0D0 D0D1 D1D2 D2D3 D3D4"/>
    </vehicle>
    <vehicle id="33" depart="660.00">
        <route edges="B1B2 B2A2 A2A1 A1A0"/>
    </vehicle>
    <vehicle id="34" depart="680.00">
        <route edges="B3B2 B2B1"/>
    </vehicle>
    <vehicle id="35" depart="700.00">
        <route edges="B1A1 A1A2 A2A3 A3B3 B3C3 C3D3 D3E3 E3D3"/>
    </vehicle>
    <vehicle id="36" depart="720.00">
        <route edges="E1E0 E0D0 D0C0 C0C1 C1C2 C2C3 C3B3 B3B2"/>
    </vehicle>
    <vehicle id="37" depart="740.00">
        <route edges="D1C1 C1C0 C0B0"/>
    </vehicle>
    <vehicle id="38" depart="760.00">
        <route edges="E2E1 E1D1 D1C1 C1C2"/>
    </vehicle>
    <vehicle id="39" depart="780.00">
        <route edges="B2B1 B1C1"/>
    </vehicle>
    <vehicle id="40" depart="800.00">
        <route edges="C3C4 C4B4 B4B3 B3B2 B2B1"/>
    </vehicle>
    <vehicle id="41" depart="820.00">
        <route edges="C4B4 B4B3 B3B2 B2B1 B1C1 C1D1 D1E1 E1E2"/>
    </vehicle>
    <vehicle id="42" depart="840.00">
        <route edges="C0B0 B0B1 B1B0"/>
    </vehicle>
    <vehicle id="43" depart="860.00">
        <route edges="E4E3 E3E2 E2D2 D2C2 C2C3"/>
    </vehicle>
    <vehicle id="44" depart="880.00">
        <route edges="A2B2 B2B1 B1A1 A1A2"/>
    </vehicle>
    <vehicle id="45" depart="900.00">
        <route edges="A3A2 A2A1 A1A0 A0B0 B0C0 C0D0 D0D1"/>
    </vehicle>
    <vehicle id="46" depart="920.00">
        <route edges="D3E3 E3E2 E2D2 D2C2 C2C1 C1C0 C0D0"/>
    </vehicle>
    <vehicle id="47" depart="940.00">
        <route edges="A2A1 A1B1 B1B2 B2B3 B3B4 B4C4"/>
    </vehicle>
    <vehicle id="48" depart="960.00">
        <route edges="E4E3 E3D3 D3C3 C3B3"/>
    </vehicle>
    <vehicle id="49" depart="980.00">
        <route edges="E3E4 E4D4 D4D3 D3D2 D2D1 D1D0 D0E0 E0E1"/>
    </vehicle>
</routes>
