<configuration>
    <input>
        <net-file value="grid.net.xml"/>
        <route-files value="grid.rou.xml"/>
    </input>
    <time>
        <begin value="0"/>
        <end value="1000"/>
    </time>
    <output>
        <tripinfo-output value="tripinfo.xml"/>
        <fcd-output value="fcd-output.xml"/>
    </output>
</configuration>